pglib-scots/SCOTS-Slack/slack_relative_linear/pglib_opf_case500_goc_scots.m
%%%%%%%%%%%%%%%%%%%%%%%%%%%%%%%%%%%%%%%%%%%%%%%%%%%%%%%%%%%%%%%%%%%%%%%%%%%
%%%%                                                                  %%%%%
%%%%    This is a modified SCOTS-feasible instance adapted from the   %%%%%
%%%%                                :                                 %%%%%
%%%%    IEEE PES Power Grid Library - Optimal Power Flow - v21.07     %%%%%
%%%%          (https://github.com/power-grid-lib/pglib-opf)           %%%%%
%%%%               Benchmark Group - Typical Operations               %%%%%
%%%%                         29 - July - 2021                         %%%%%
%%%%                                                                  %%%%%
%%%%%%%%%%%%%%%%%%%%%%%%%%%%%%%%%%%%%%%%%%%%%%%%%%%%%%%%%%%%%%%%%%%%%%%%%%%
%
%   This is a synthetic 500 bus case, developed for use in ARPA-e's Grid
%   Optimization Competition, Challenge 1.
%
%   https://gocompetition.energy.gov/challenges/22/datasets
%
%   When publishing results based on this data, please cite:
%
%   [1] A.B. Birchfield, T. Xu, K.M. Gegner, K.S. Shetye, T.J. Overbye,
%       "Grid Structural Characteristics as Validation Criteria for
%       Synthetic Networks," IEEE Transactions on Power Systems, 2017.
%
%   February, 2020
%
%   Copyright (c) 2020 by A.B. Birchfield, H. Li, J. Wert, J. Yeo, T. Xu,
%   and T.J. Overbye
%   Licensed under the Creative Commons Attribution 4.0 International license,
%   http://creativecommons.org/licenses/by/4.0/
%
%% MATPOWER Case Format : Version 2
function mpc = pglib_opf_case500_goc
mpc.version = '2';

%%-----  Power Flow Data  -----%%
%% system MVA base
mpc.baseMVA = 100.0;
%% bus data
%    bus_i    type    Pd    Qd    Gs    Bs    area    Vm    Va    baseKV    zone    Vmax    Vmin
mpc.bus = [
	1	1	35.61882	6.57372	0.0	0.0	1	1.0	0.0	138.0	1	1.1	0.9				
	2	1	98.24997	27.5116	0.0	0.0	1	1.0	0.0	138.0	1	1.1	0.9				
	3	1	48.64711	11.12996	0.0	0.0	1	1.0	0.0	138.0	1	1.1	0.9				
	4	1	85.9078	3.7466	0.0	0.0	1	1.0	0.0	138.0	1	1.1	0.9				
	5	1	84.78027	14.43204	0.0	0.0	1	1.0	0.0	138.0	1	1.1	0.9				
	6	1	62.47844	5.52129	0.0	0.0	1	1.0	0.0	138.0	1	1.1	0.9				
	7	1	49.78416	17.19519	0.0	0.0	1	1.0	0.0	138.0	1	1.1	0.9				
	8	1	64.70161	7.07129	0.0	0.0	1	1.0	0.0	138.0	1	1.1	0.9				
	9	1	20.50395	8.80639	0.0	0.0	1	1.0	0.0	138.0	1	1.1	0.9				
	10	1	46.41392	14.1549	0.0	0.0	1	1.0	0.0	138.0	1	1.1	0.9				
	11	1	16.10085	3.92007	0.0	0.0	1	1.0	0.0	138.0	1	1.1	0.9				
	12	1	43.58844	2.8695	0.0	0.0	1	1.0	0.0	138.0	1	1.1	0.9				
	13	1	61.22114	10.72396	0.0	0.0	1	1.0	0.0	138.0	1	1.1	0.9				
	14	1	130.84189	52.41012	0.0	0.0	1	1.0	0.0	138.0	1	1.1	0.9				
	15	1	104.28734	12.65258	0.0	0.0	1	1.0	0.0	138.0	1	1.1	0.9				
	16	1	27.22817	9.90526	0.0	0.0	1	1.0	0.0	138.0	1	1.1	0.9				
	17	1	32.01146	13.06104	0.0	0.0	1	1.0	0.0	138.0	1	1.1	0.9				
	18	1	119.67057	30.77414	0.0	0.0	1	1.0	0.0	138.0	1	1.1	0.9				
	19	1	65.32053	13.43194	0.0	0.0	1	1.0	0.0	138.0	1	1.1	0.9				
	20	1	0.0	0.0	0.0	0.0	1	1.0	0.0	345.0	1	1.1	0.9				
	21	1	58.21881	18.96613	0.0	0.0	1	1.0	0.0	138.0	1	1.1	0.9				
	22	1	0.0	0.0	0.0	0.0	1	1.0	0.0	345.0	1	1.1	0.9				
	23	1	29.0187	6.21065	0.0	0.0	1	1.0	0.0	138.0	1	1.1	0.9				
	24	1	54.27996	33.95404	0.0	0.0	1	1.0	0.0	138.0	1	1.1	0.9				
	25	1	0.0	0.0	0.0	0.0	1	1.0	0.0	345.0	1	1.1	0.9				
	26	1	0.0	0.0	0.0	0.0	1	1.0	0.0	138.0	1	1.1	0.9				
	27	1	102.98049	33.4489	0.0	0.0	1	1.0	0.0	345.0	1	1.1	0.9				
	28	1	61.33417	20.6649	0.0	0.0	1	1.0	0.0	138.0	1	1.1	0.9				
	29	1	50.93486	10.69025	0.0	0.0	1	1.0	0.0	138.0	1	1.1	0.9				
	30	1	52.92155	2.78886	0.0	0.0	1	1.0	0.0	138.0	1	1.1	0.9				
	31	1	96.44392	21.50275	0.0	0.0	1	1.0	0.0	138.0	1	1.1	0.9				
	32	1	78.80364	26.90265	0.0	0.0	1	1.0	0.0	138.0	1	1.1	0.9				
	33	1	173.87396	98.10836	0.0	0.0	1	1.0	0.0	138.0	1	1.1	0.9				
	34	1	62.11117	13.14354	0.0	0.0	1	1.0	0.0	138.0	1	1.1	0.9				
	35	1	114.97555	12.15542	0.0	0.0	1	1.0	0.0	138.0	1	1.1	0.9				
	36	1	135.53799	51.44229	0.0	0.0	1	1.0	0.0	138.0	1	1.1	0.9				
	37	1	163.47215	36.67946	0.0	0.0	1	1.0	0.0	138.0	1	1.1	0.9				
	38	1	94.23878	20.04084	0.0	0.0	1	1.0	0.0	138.0	1	1.1	0.9				
	39	1	133.70834	50.68181	0.0	0.0	1	1.0	0.0	138.0	1	1.1	0.9				
	40	1	153.11126	18.77494	0.0	0.0	1	1.0	0.0	138.0	1	1.1	0.9				
	41	1	0.0	0.0	0.0	0.0	1	1.0	0.0	345.0	1	1.1	0.9				
	42	1	98.13381	30.7346	0.0	0.0	1	1.0	0.0	138.0	1	1.1	0.9				
	43	1	0.0	0.0	0.0	0.0	1	1.0	0.0	345.0	1	1.1	0.9				
	44	1	77.88005	5.03738	0.0	0.0	1	1.0	0.0	138.0	1	1.1	0.9				
	45	1	302.57835	18.48031	0.0	0.0	1	1.0	0.0	138.0	1	1.1	0.9				
	46	1	114.29507	24.00707	0.0	0.0	1	1.0	0.0	138.0	1	1.1	0.9				
	47	1	88.2312	9.19995	0.0	0.0	1	1.0	0.0	138.0	1	1.1	0.9				
	48	1	72.71207	7.13658	0.0	0.0	1	1.0	0.0	138.0	1	1.1	0.9				
	49	1	127.71185	15.1815	0.0	0.0	1	1.0	0.0	138.0	1	1.1	0.9				
	50	1	86.94434	53.88002	0.0	0.0	1	1.0	0.0	138.0	1	1.1	0.9				
	51	1	88.68692	19.42157	0.0	0.0	1	1.0	0.0	138.0	1	1.1	0.9				
	52	1	0.0	0.0	0.0	0.0	1	1.0	0.0	345.0	1	1.1	0.9				
	53	1	171.6378	44.16329	0.0	0.0	1	1.0	0.0	138.0	1	1.1	0.9				
	54	1	0.0	0.0	0.0	0.0	1	1.0	0.0	345.0	1	1.1	0.9				
	55	1	36.12391	3.91519	0.0	0.0	1	1.0	0.0	138.0	1	1.1	0.9				
	56	1	38.57788	3.99452	0.0	0.0	1	1.0	0.0	138.0	1	1.1	0.9				
	57	1	19.68323	6.08113	0.0	0.0	1	1.0	0.0	138.0	1	1.1	0.9				
	58	1	43.83201	35.83586	0.0	0.0	1	1.0	0.0	138.0	1	1.1	0.9				
	59	1	42.90744	17.47175	0.0	90.84931	1	1.0	0.0	138.0	1	1.1	0.9				
	60	1	22.94545	9.19666	0.0	0.0	1	1.0	0.0	138.0	1	1.1	0.9				
	61	1	44.96994	9.7591	0.0	0.0	1	1.0	0.0	138.0	1	1.1	0.9				
	62	1	36.43759	4.47433	0.0	0.0	1	1.0	0.0	138.0	1	1.1	0.9				
	63	1	71.68031	17.14206	0.0	-0.76986	1	1.0	0.0	138.0	1	1.1	0.9				
	64	1	31.84411	8.06778	0.0	0.0	1	1.0	0.0	138.0	1	1.1	0.9				
	65	1	63.89935	9.19084	0.0	0.0	1	1.0	0.0	138.0	1	1.1	0.9				
	66	1	36.67929	10.61776	0.0	25.11053	1	1.0	0.0	138.0	1	1.1	0.9				
	67	1	28.70773	7.21002	0.0	0.0	1	1.0	0.0	138.0	1	1.1	0.9				
	68	1	28.62912	5.47036	0.0	0.0	1	1.0	0.0	138.0	1	1.1	0.9				
	69	1	32.06763	8.09255	0.0	0.0	1	1.0	0.0	138.0	1	1.1	0.9				
	70	1	39.19616	3.9776	0.0	0.0	1	1.0	0.0	138.0	1	1.1	0.9				
	71	1	60.37454	8.47511	0.0	0.0	1	1.0	0.0	138.0	1	1.1	0.9				
	72	1	56.94691	9.93336	0.0	0.0	1	1.0	0.0	138.0	1	1.1	0.9				
	73	1	70.41472	10.3498	0.0	0.0	1	1.0	0.0	138.0	1	1.1	0.9				
	74	1	60.7583	25.73315	0.0	0.0	1	1.0	0.0	138.0	1	1.1	0.9				
	75	1	40.77538	8.40489	0.0	0.0	1	1.0	0.0	138.0	1	1.1	0.9				
	76	1	43.07126	4.30925	0.0	0.0	1	1.0	0.0	138.0	1	1.1	0.9				
	77	1	57.29571	18.33109	0.0	0.0	1	1.0	0.0	138.0	1	1.1	0.9				
	78	1	54.007	18.02825	0.0	0.0	1	1.0	0.0	138.0	1	1.1	0.9				
	79	1	54.26508	10.90256	0.0	0.0	1	1.0	0.0	138.0	1	1.1	0.9				
	80	1	46.06977	21.1901	0.0	0.0	1	1.0	0.0	138.0	1	1.1	0.9				
	81	1	54.50795	17.69387	0.0	0.0	1	1.0	0.0	138.0	1	1.1	0.9				
	82	1	111.64362	24.13123	0.0	0.0	1	1.0	0.0	138.0	1	1.1	0.9				
	83	1	101.04494	24.90565	0.0	0.0	1	1.0	0.0	138.0	1	1.1	0.9				
	84	1	56.11057	11.57175	0.0	0.0	1	1.0	0.0	138.0	1	1.1	0.9				
	85	1	32.55034	12.18185	0.0	0.0	1	1.0	0.0	138.0	1	1.1	0.9				
	86	1	59.54523	10.88469	0.0	0.0	1	1.0	0.0	138.0	1	1.1	0.9				
	87	1	65.98171	22.6301	0.0	0.0	1	1.0	0.0	138.0	1	1.1	0.9				
	88	1	47.3434	10.03957	0.0	0.0	1	1.0	0.0	138.0	1	1.1	0.9				
	89	1	74.81833	17.49488	0.0	0.0	1	1.0	0.0	138.0	1	1.1	0.9				
	90	1	0.0	0.0	0.0	0.0	1	1.0	0.0	345.0	1	1.1	0.9				
	91	1	0.0	0.0	0.0	0.0	1	1.0	0.0	138.0	1	1.1	0.9				
	92	1	106.47708	17.9372	0.0	0.0	1	1.0	0.0	345.0	1	1.1	0.9				
	93	1	40.21293	5.30278	0.0	0.0	1	1.0	0.0	138.0	1	1.1	0.9				
	94	1	46.5641	6.11928	0.0	0.0	1	1.0	0.0	138.0	1	1.1	0.9				
	95	1	46.01027	23.12654	0.0	0.0	1	1.0	0.0	138.0	1	1.1	0.9				
	96	1	33.93057	6.33543	0.0	0.0	1	1.0	0.0	138.0	1	1.1	0.9				
	97	1	0.0	0.0	0.0	0.0	1	1.0	0.0	345.0	1	1.1	0.9				
	98	1	0.0	0.0	0.0	0.0	1	1.0	0.0	138.0	1	1.1	0.9				
	99	1	97.74846	38.28272	0.0	0.0	1	1.0	0.0	345.0	1	1.1	0.9				
	100	1	38.55452	12.14158	0.0	0.0	1	1.0	0.0	138.0	1	1.1	0.9				
	101	1	45.16153	22.8805	0.0	0.0	1	1.0	0.0	138.0	1	1.1	0.9				
	102	1	29.18628	7.81449	0.0	0.0	1	1.0	0.0	138.0	1	1.1	0.9				
	103	1	34.30703	9.79684	0.0	0.0	1	1.0	0.0	138.0	1	1.1	0.9				
	104	1	24.26599	5.5636	0.0	0.0	1	1.0	0.0	138.0	1	1.1	0.9				
	105	1	39.917	11.44117	0.0	0.0	1	1.0	0.0	138.0	1	1.1	0.9				
	106	1	0.0	0.0	0.0	0.0	1	1.0	0.0	345.0	1	1.1	0.9				
	107	1	75.51367	1.33913	0.0	0.0	1	1.0	0.0	138.0	1	1.1	0.9				
	108	1	0.0	0.0	0.0	0.0	1	1.0	0.0	345.0	1	1.1	0.9				
	109	1	49.64731	13.46196	0.0	24.79285	1	1.0	0.0	138.0	1	1.1	0.9				
	110	1	54.65649	8.32867	0.0	0.0	1	1.0	0.0	138.0	1	1.1	0.9				
	111	1	93.17204	20.32706	0.0	0.0	1	1.0	0.0	138.0	1	1.1	0.9				
	112	1	99.66883	59.00412	0.0	0.0	1	1.0	0.0	138.0	1	1.1	0.9				
	113	1	52.67078	21.3247	0.0	0.0	1	1.0	0.0	138.0	1	1.1	0.9				
	114	1	40.69928	12.37229	0.0	0.0	1	1.0	0.0	138.0	1	1.1	0.9				
	115	1	77.71488	14.88003	0.0	0.0	1	1.0	0.0	138.0	1	1.1	0.9				
	116	1	88.03808	18.35864	0.0	52.80848	1	1.0	0.0	138.0	1	1.1	0.9				
	117	1	68.18258	7.6681	0.0	0.0	1	1.0	0.0	138.0	1	1.1	0.9				
	118	1	92.36012	11.40737	0.0	0.0	1	1.0	0.0	138.0	1	1.1	0.9				
	119	1	0.0	0.0	0.0	0.0	1	1.0	0.0	345.0	1	1.1	0.9				
	120	1	85.81686	23.337	0.0	0.0	1	1.0	0.0	138.0	1	1.1	0.9				
	121	1	0.0	0.0	0.0	0.0	1	1.0	0.0	345.0	1	1.1	0.9				
	122	1	54.3972	9.09234	0.0	0.0	1	1.0	0.0	138.0	1	1.1	0.9				
	123	1	71.14737	33.99319	0.0	0.0	1	1.0	0.0	138.0	1	1.1	0.9				
	124	1	83.92672	7.34498	0.0	0.0	1	1.0	0.0	138.0	1	1.1	0.9				
	125	1	83.15505	31.19383	0.0	0.0	1	1.0	0.0	138.0	1	1.1	0.9				
	126	1	36.25305	3.66605	0.0	0.0	1	1.0	0.0	138.0	1	1.1	0.9				
	127	1	29.81834	16.40728	0.0	0.0	1	1.0	0.0	138.0	1	1.1	0.9				
	128	1	35.78263	2.42284	0.0	0.0	1	1.0	0.0	138.0	1	1.1	0.9				
	129	1	51.8093	15.49727	0.0	0.0	1	1.0	0.0	138.0	1	1.1	0.9				
	130	1	31.2514	13.83211	0.0	0.0	1	1.0	0.0	138.0	1	1.1	0.9				
	131	1	34.95893	7.63634	0.0	0.0	1	1.0	0.0	138.0	1	1.1	0.9				
	132	1	52.06332	19.1481	0.0	49.70244	1	1.0	0.0	138.0	1	1.1	0.9				
	133	1	19.63689	8.99446	0.0	0.0	1	1.0	0.0	138.0	1	1.1	0.9				
	134	1	38.94887	4.35938	0.0	0.0	1	1.0	0.0	138.0	1	1.1	0.9				
	135	1	0.0	0.0	0.0	21.73288	1	1.0	0.0	345.0	1	1.1	0.9				
	136	1	0.0	0.0	0.0	0.0	1	1.0	0.0	138.0	1	1.1	0.9				
	137	1	51.54586	9.90354	0.0	0.0	1	1.0	0.0	345.0	1	1.1	0.9				
	138	1	58.67666	17.43049	0.0	94.76676	1	1.0	0.0	138.0	1	1.1	0.9				
	139	1	71.4838	14.1832	0.0	0.0	1	1.0	0.0	138.0	1	1.1	0.9				
	140	1	72.49661	22.65969	0.0	0.0	1	1.0	0.0	138.0	1	1.1	0.9				
	141	1	81.9518	40.60647	0.0	0.0	1	1.0	0.0	138.0	1	1.1	0.9				
	142	1	22.84794	4.50291	0.0	0.0	1	1.0	0.0	138.0	1	1.1	0.9				
	143	1	42.56316	21.29388	0.0	0.0	1	1.0	0.0	138.0	1	1.1	0.9				
	144	1	35.49493	8.37043	0.0	0.0	1	1.0	0.0	138.0	1	1.1	0.9				
	145	1	78.91774	30.00508	0.0	0.0	1	1.0	0.0	138.0	1	1.1	0.9				
	146	1	44.64931	13.40111	0.0	0.0	1	1.0	0.0	138.0	1	1.1	0.9				
	147	1	65.73686	21.35948	0.0	0.0	1	1.0	0.0	138.0	1	1.1	0.9				
	148	1	87.01073	41.88842	0.0	0.0	1	1.0	0.0	138.0	1	1.1	0.9				
	149	1	109.81274	17.0128	0.0	0.0	1	1.0	0.0	138.0	1	1.1	0.9				
	150	1	169.63527	52.74781	0.0	0.0	1	1.0	0.0	138.0	1	1.1	0.9				
	151	1	0.0	0.0	0.0	0.0	1	1.0	0.0	345.0	1	1.1	0.9				
	152	1	0.0	0.0	0.0	0.0	1	1.0	0.0	138.0	1	1.1	0.9				
	153	1	157.10017	35.91191	0.0	0.0	1	1.0	0.0	345.0	1	1.1	0.9				
	154	1	53.45658	10.63611	0.0	0.0	1	1.0	0.0	138.0	1	1.1	0.9				
	155	1	90.3618	14.922	0.0	0.0	1	1.0	0.0	138.0	1	1.1	0.9				
	156	1	73.74289	28.15426	0.0	118.04671	1	1.0	0.0	138.0	1	1.1	0.9				
	157	1	37.96547	26.03983	0.0	0.0	1	1.0	0.0	138.0	1	1.1	0.9				
	158	1	99.23241	16.6326	0.0	0.0	1	1.0	0.0	138.0	1	1.1	0.9				
	159	1	73.40689	14.44084	0.0	0.0	1	1.0	0.0	138.0	1	1.1	0.9				
	160	1	36.39668	14.79221	0.0	0.0	1	1.0	0.0	138.0	1	1.1	0.9				
	161	1	28.65867	5.70807	0.0	0.0	1	1.0	0.0	138.0	1	1.1	0.9				
	162	1	26.35587	8.72997	0.0	0.0	1	1.0	0.0	138.0	1	1.1	0.9				
	163	1	36.96297	3.89053	0.0	0.0	1	1.0	0.0	138.0	1	1.1	0.9				
	164	1	39.57328	5.63349	0.0	0.0	1	1.0	0.0	138.0	1	1.1	0.9				
	165	1	124.00109	13.81438	0.0	0.0	1	1.0	0.0	138.0	1	1.1	0.9				
	166	1	74.25287	16.42966	0.0	0.0	1	1.0	0.0	138.0	1	1.1	0.9				
	167	1	40.83016	10.04079	0.0	0.0	1	1.0	0.0	138.0	1	1.1	0.9				
	168	1	72.90662	23.71429	0.0	34.25185	1	1.0	0.0	138.0	1	1.1	0.9				
	169	1	40.18661	21.45574	0.0	0.0	1	1.0	0.0	138.0	1	1.1	0.9				
	170	1	99.31997	23.82538	0.0	0.0	1	1.0	0.0	138.0	1	1.1	0.9				
	171	1	115.38626	31.22093	0.0	0.0	1	1.0	0.0	138.0	1	1.1	0.9				
	172	1	63.6424	19.89552	0.0	0.0	1	1.0	0.0	138.0	1	1.1	0.9				
	173	1	33.99231	4.57717	0.0	0.0	1	1.0	0.0	138.0	1	1.1	0.9				
	174	1	136.21012	69.07718	0.0	0.0	1	1.0	0.0	138.0	1	1.1	0.9				
	175	1	98.37927	4.09445	0.0	0.0	1	1.0	0.0	138.0	1	1.1	0.9				
	176	1	68.80767	42.52036	0.0	273.9097	1	1.0	0.0	138.0	1	1.1	0.9				
	177	1	165.22394	27.01824	0.0	0.0	1	1.0	0.0	138.0	1	1.1	0.9				
	178	1	190.80659	44.51571	0.0	0.0	1	1.0	0.0	138.0	1	1.1	0.9				
	179	1	75.32883	20.81102	0.0	0.0	1	1.0	0.0	138.0	1	1.1	0.9				
	180	1	42.2158	6.39047	0.0	0.0	1	1.0	0.0	138.0	1	1.1	0.9				
	181	1	50.83648	8.98756	0.0	0.00059	1	1.0	0.0	138.0	1	1.1	0.9				
	182	1	112.80944	14.46946	0.0	0.0	1	1.0	0.0	138.0	1	1.1	0.9				
	183	1	93.87775	19.6133	0.0	0.0	1	1.0	0.0	138.0	1	1.1	0.9				
	184	1	76.91671	31.7448	0.0	0.0	1	1.0	0.0	138.0	1	1.1	0.9				
	185	1	93.26853	3.43813	0.0	0.0	1	1.0	0.0	138.0	1	1.1	0.9				
	186	1	92.22111	21.67286	0.0	0.0	1	1.0	0.0	138.0	1	1.1	0.9				
	187	1	163.8891	73.25672	0.0	0.0	1	1.0	0.0	138.0	1	1.1	0.9				
	188	1	53.14681	14.76276	0.0	0.0	1	1.0	0.0	138.0	1	1.1	0.9				
	189	1	39.0074	3.64692	0.0	0.0	1	1.0	0.0	138.0	1	1.1	0.9				
	190	1	0.0	0.0	0.0	0.0	1	1.0	0.0	345.0	1	1.1	0.9				
	191	1	0.0	0.0	0.0	0.0	1	1.0	0.0	138.0	1	1.1	0.9				
	192	1	131.01594	31.62305	0.0	0.0	1	1.0	0.0	345.0	1	1.1	0.9				
	193	1	77.65605	23.36279	0.0	0.0	1	1.0	0.0	138.0	1	1.1	0.9				
	194	1	70.68182	16.97447	0.0	0.0	1	1.0	0.0	138.0	1	1.1	0.9				
	195	1	80.465	14.65443	0.0	0.0	1	1.0	0.0	138.0	1	1.1	0.9				
	196	1	68.67858	13.07046	0.0	0.0	1	1.0	0.0	138.0	1	1.1	0.9				
	197	1	38.36987	7.19777	0.0	0.0	1	1.0	0.0	138.0	1	1.1	0.9				
	198	1	52.28371	19.78762	0.0	0.0	1	1.0	0.0	138.0	1	1.1	0.9				
	199	1	66.67925	2.50586	0.0	-17.21645	1	1.0	0.0	138.0	1	1.1	0.9				
	200	1	61.92285	16.82206	0.0	22.90298	1	1.0	0.0	138.0	1	1.1	0.9				
...
];

%%	 generator data
%    bus    Pg    Qg    Qmax    Qmin    Vg    mBase    status    Pmax    Pmin    Pc1    Pc2    Qc1min    Qc1max    Qc2min    Qc2max    ramp_agc    ramp_10    ramp_30    ramp_q    apf
mpc.gen = [
	272	34.463	7.856	18.01	-2.298	1.0	46.9	1	46.9	22.026															
	275	0.0	0.0	326.858	-72.832	1.0	888.2	0	888.2	146.11															
	276	643.217	127.013	326.858	-72.832	1.0	888.2	1	888.2	398.234															
	277	16.691	4.1875	9.6	-1.225	1.0	25.0	1	25.0	8.382															
	277	13.858	4.1875	9.6	-1.225	1.0	25.0	1	25.0	2.716															
	277	17.3305	4.1875	9.6	-1.225	1.0	25.0	1	25.0	9.661															
	277	16.8255	4.1875	9.6	-1.225	1.0	25.0	1	25.0	8.651															
	280	118.674	31.581	80.778	-17.616	1.0	158.7	1	158.7	78.648															
	281	0.0	0.0	80.778	-17.616	1.0	158.7	0	158.7	68.611															
	284	135.035	43.2495	110.623	-24.124	1.0	217.33	1	217.333	52.737															
	285	136.374	43.2495	110.623	-24.124	1.0	217.33	1	217.333	55.415															
	286	143.288	43.2495	110.623	-24.124	1.0	217.33	1	217.333	69.243															
	287	0.0	0.0	110.623	-24.124	1.0	217.33	0	217.333	64.598															
	288	0.0	0.0	110.623	-24.124	1.0	217.33	0	217.333	52.424															
	289	122.406	43.2495	110.623	-24.124	1.0	217.33	1	217.333	27.479															
	292	0.28	0.0835	0.192	-0.025	1.0	0.5	1	0.5	0.06															
	292	0.313	0.0835	0.192	-0.025	1.0	0.5	1	0.5	0.126															
	294	0.0	0.0	9.162	-1.998	1.0	18.0	0	18.0	5.517															
	297	130.6165	35.515	90.84	-19.81	1.0	178.47	1	178.467	82.766															
	298	132.5635	35.515	90.84	-19.81	1.0	178.47	1	178.467	86.66															
	299	0.0	0.0	90.84	-19.81	1.0	178.47	0	178.467	63.99															
	300	121.061	35.515	90.84	-19.81	1.0	178.47	1	178.467	63.655															
	301	0.0	0.0	90.84	-19.81	1.0	178.47	0	178.467	54.225															
	302	121.1655	35.515	90.84	-19.81	1.0	178.47	1	178.467	63.864															
	303	42.106	11.306	25.92	-3.308	1.0	67.5	1	67.5	16.712															
	303	40.629	11.306	25.92	-3.308	1.0	67.5	1	67.5	13.758															
	306	0.0	0.0	3.262	-0.854	1.0	7.0	0	7.0	1.745															
	306	3.891	1.204	3.262	-0.854	1.0	7.0	1	7.0	0.782															
	307	22.668	5.645	12.941	-1.651	1.0	33.7	1	33.7	11.636															
	307	24.2095	5.645	12.941	-1.651	1.0	33.7	1	33.7	14.719															
	307	0.0	0.0	12.941	-1.651	1.0	33.7	0	33.7	6.952															
	311	0.0	0.0	428.597	-95.503	1.0	1164.67	0	1164.667	186.084															
	312	809.527	166.547	428.597	-95.503	1.0	1164.67	1	1164.667	454.387															
	313	806.4555	166.547	428.597	-95.503	1.0	1164.67	1	1164.667	448.244															
	316	237.492	66.191	169.302	-36.92	1.0	332.62	1	332.617	142.367															
	317	0.0	0.0	169.302	-36.92	1.0	332.62	0	332.617	38.676															
	318	184.7845	66.191	169.302	-36.92	1.0	332.62	1	332.617	36.952															
	319	209.1735	66.191	169.302	-36.92	1.0	332.62	1	332.617	85.73															
	320	0.0	0.0	169.302	-36.92	1.0	332.62	0	332.617	130.581															
	321	0.0	0.0	169.302	-36.92	1.0	332.62	0	332.617	84.68															
	324	0.0	0.0	61.08	-13.32	1.0	120.0	0	120.0	31.702															
	325	86.33	23.88	61.08	-13.32	1.0	120.0	1	120.0	52.66															
	326	88.9155	23.88	61.08	-13.32	1.0	120.0	1	120.0	57.831															
	327	0.0	0.0	61.08	-13.32	1.0	120.0	0	120.0	55.972															
	328	84.224	23.88	61.08	-13.32	1.0	120.0	1	120.0	48.448															
	329	70.3275	23.88	61.08	-13.32	1.0	120.0	1	120.0	20.655															
	330	0.6295	0.172	0.466	-0.122	1.0	1.0	1	1.0	0.259															
	330	0.5715	0.172	0.466	-0.122	1.0	1.0	1	1.0	0.143															
	330	0.674	0.172	0.466	-0.122	1.0	1.0	1	1.0	0.348															
	330	0.7045	0.172	0.466	-0.122	1.0	1.0	1	1.0	0.409															
	334	42.423	11.868	32.154	-8.418	1.0	69.0	1	69.0	15.846															
	335	0.0	0.0	32.154	-8.418	1.0	69.0	0	69.0	12.549															
	338	174.097	46.7355	119.539	-26.068	1.0	234.85	1	234.85	113.344															
	339	165.63	46.7355	119.539	-26.068	1.0	234.85	1	234.85	96.41															
	340	0.0	0.0	119.539	-26.068	1.0	234.85	0	234.85	83.983															
	341	164.3445	46.7355	119.539	-26.068	1.0	234.85	1	234.85	93.839															
	343	0.0	0.0	83.569	-21.879	1.0	179.33	0	179.333	41.662															
	344	108.947	30.845	83.569	-21.879	1.0	179.33	1	179.333	38.561															
	345	0.0	0.0	83.569	-21.879	1.0	179.33	0	179.333	80.146															
	346	33.0455	9.6515	24.687	-5.384	1.0	48.5	1	48.5	17.591															
	346	35.5875	9.6515	24.687	-5.384	1.0	48.5	1	48.5	22.675															
	347	0.0	0.0	28.8	-3.675	1.0	75.0	0	75.0	36.562															
	347	54.1725	12.5625	28.8	-3.675	1.0	75.0	1	75.0	33.345															
	347	52.459	12.5625	28.8	-3.675	1.0	75.0	1	75.0	29.918															
	350	17.738	4.824	11.059	-1.411	1.0	28.8	1	28.8	6.676															
	351	21.4925	4.824	11.059	-1.411	1.0	28.8	1	28.8	14.185															
	351	19.996	4.824	11.059	-1.411	1.0	28.8	1	28.8	11.192															
	351	19.417	4.824	11.059	-1.411	1.0	28.8	1	28.8	10.034															
	354	71.5885	21.89	55.99	-12.21	1.0	110.0	1	110.0	33.177															
	356	22.006	5.081	11.648	-1.486	1.0	30.33	1	30.333	13.679															
	356	17.979	5.081	11.648	-1.486	1.0	30.33	1	30.333	5.625															
	356	0.0	0.0	11.648	-1.486	1.0	30.33	0	30.333	12.388															
	357	13.687	3.6465	9.879	-2.586	1.0	21.2	1	21.2	6.174															
	358	36.4625	8.819	20.218	-2.58	1.0	52.65	1	52.65	20.275															
	358	38.8985	8.819	20.218	-2.58	1.0	52.65	1	52.65	25.147															
	358	36.023	8.819	20.218	-2.58	1.0	52.65	1	52.65	19.396															
	358	0.0	0.0	20.218	-2.58	1.0	52.65	0	52.65	15.946															
	359	0.0	0.0	14.048	-3.064	1.0	27.6	0	27.6	11.587															
	359	20.4465	5.492	14.048	-3.064	1.0	27.6	1	27.6	13.293															
	362	392.1035	121.346	328.763	-86.071	1.0	705.5	1	705.5	78.707															
	363	391.8455	121.346	328.763	-86.071	1.0	705.5	1	705.5	78.191															
	364	0.0	0.0	328.763	-86.071	1.0	705.5	0	705.5	259.966															
	365	495.8065	121.346	328.763	-86.071	1.0	705.5	1	705.5	286.113															
	367	11.3645	3.4335	7.872	-1.005	1.0	20.5	1	20.5	2.229															
	368	14.7755	3.4335	7.872	-1.005	1.0	20.5	1	20.5	9.051															
	368	0.0	0.0	7.872	-1.005	1.0	20.5	0	20.5	6.32															
	369	0.0	0.0	7.872	-1.005	1.0	20.5	0	20.5	9.565															
	371	178.966	48.8825	132.437	-34.672	1.0	284.2	1	284.2	73.732															
	372	209.049	48.8825	132.437	-34.672	1.0	284.2	1	284.2	133.898															
	375	15.8795	4.975	12.725	-2.775	1.0	25.0	1	25.0	6.759															
	378	148.7015	46.123	117.973	-25.727	1.0	231.77	1	231.775	65.628															
	379	149.218	46.123	117.973	-25.727	1.0	231.77	1	231.775	66.661															
	380	131.406	46.123	117.973	-25.727	1.0	231.77	1	231.775	31.037															
	381	172.6965	46.123	117.973	-25.727	1.0	231.77	1	231.775	113.618															
	382	0.0	0.0	2.842	-0.363	1.0	7.4	0	7.4	3.554															
	382	5.1625	1.2395	2.842	-0.363	1.0	7.4	1	7.4	2.925															
	382	4.139	1.2395	2.842	-0.363	1.0	7.4	1	7.4	0.878															
	382	4.7965	1.2395	2.842	-0.363	1.0	7.4	1	7.4	2.193															
	384	0.0	0.0	5.76	-0.735	1.0	15.0	0	15.0	5.179															
	384	11.1675	2.5125	5.76	-0.735	1.0	15.0	1	15.0	7.335															
	384	9.073	2.5125	5.76	-0.735	1.0	15.0	1	15.0	3.146															
	384	8.689	2.5125	5.76	-0.735	1.0	15.0	1	15.0	2.378															
	386	47.404	11.2785	25.856	-3.299	1.0	67.33	1	67.333	27.475															
	386	48.736	11.2785	25.856	-3.299	1.0	67.33	1	67.333	30.139															
	386	39.1825	11.2785	25.856	-3.299	1.0	67.33	1	67.333	11.032															
	386	46.2705	11.2785	25.856	-3.299	1.0	67.33	1	67.333	25.208															
	386	39.964	11.2785	25.856	-3.299	1.0	67.33	1	67.333	12.595															
	386	0.0	0.0	25.856	-3.299	1.0	67.33	0	67.333	7.468															
	391	89.373	28.158	72.023	-15.707	1.0	141.5	1	141.5	37.246															
	392	0.0	0.0	72.023	-15.707	1.0	141.5	0	141.5	45.823															
	393	0.0	0.0	72.023	-15.707	1.0	141.5	0	141.5	59.806															
	394	0.0	0.0	72.023	-15.707	1.0	141.5	0	141.5	46.001															
	395	19.08	4.9415	11.328	-1.445	1.0	29.5	1	29.5	8.66															
	395	21.751	4.9415	11.328	-1.445	1.0	29.5	1	29.5	14.002															
	396	22.052	4.9415	11.328	-1.445	1.0	29.5	1	29.5	14.604															
	396	18.506	4.9415	11.328	-1.445	1.0	29.5	1	29.5	7.512															
	396	17.8405	4.9415	11.328	-1.445	1.0	29.5	1	29.5	6.181															
	396	21.674	4.9415	11.328	-1.445	1.0	29.5	1	29.5	13.848															
	398	53.8725	15.7875	40.381	-8.806	1.0	79.33	1	79.333	28.412															
	398	53.118	15.7875	40.381	-8.806	1.0	79.33	1	79.333	26.903															
	398	48.24	15.7875	40.381	-8.806	1.0	79.33	1	79.333	17.147															
	398	48.8045	15.7875	40.381	-8.806	1.0	79.33	1	79.333	18.276															
	398	55.47	15.7875	40.381	-8.806	1.0	79.33	1	79.333	31.607															
	398	53.4175	15.7875	40.381	-8.806	1.0	79.33	1	79.333	27.502															
	399	0.863	0.251	0.576	-0.074	1.0	1.5	1	1.5	0.226															
	399	0.0	0.0	0.576	-0.074	1.0	1.5	0	1.5	0.589															
	401	0.0	0.0	31.176	-6.799	1.0	61.25	0	61.25	22.338															
	402	42.557	12.1885	31.176	-6.799	1.0	61.25	1	61.25	23.864															
	404	31.01	7.1185	16.32	-2.083	1.0	42.5	1	42.5	19.52															
	404	29.0165	7.1185	16.32	-2.083	1.0	42.5	1	42.5	15.533															
	404	27.7565	7.1185	16.32	-2.083	1.0	42.5	1	42.5	13.013															
	404	27.5805	7.1185	16.32	-2.083	1.0	42.5	1	42.5	12.661															
	407	63.9935	21.691	55.481	-12.099	1.0	109.0	1	109.0	18.987															
	408	61.8655	21.691	55.481	-12.099	1.0	109.0	1	109.0	14.731															
	409	70.785	21.691	55.481	-12.099	1.0	109.0	1	109.0	32.57															
	410	65.653	21.691	55.481	-12.099	1.0	109.0	1	109.0	22.306															
	411	61.5715	21.691	55.481	-12.099	1.0	109.0	1	109.0	14.143															
	412	66.2415	21.691	55.481	-12.099	1.0	109.0	1	109.0	23.483															
	413	32.777	9.0285	20.698	-2.641	1.0	53.9	1	53.9	11.654															
	416	0.0	0.0	165.029	-43.205	1.0	354.14	0	354.14	67.963															
	417	242.657	60.912	165.029	-43.205	1.0	354.14	1	354.14	131.174															
	418	0.0	0.0	165.029	-43.205	1.0	354.14	0	354.14	149.645															
	419	205.3915	60.912	165.029	-43.205	1.0	354.14	1	354.14	56.643															
	420	211.0205	60.912	165.029	-43.205	1.0	354.14	1	354.14	67.901															
	421	0.0	0.0	26.213	-5.717	1.0	51.5	0	51.5	24.828															
	421	37.7185	10.248	26.213	-5.717	1.0	51.5	1	51.5	23.937															
	424	191.3985	46.44	125.82	-32.94	1.0	270.0	1	270.0	112.797															
	425	0.0	0.0	125.82	-32.94	1.0	270.0	0	270.0	87.627															
	426	186.408	46.44	125.82	-32.94	1.0	270.0	1	270.0	102.816															
	427	184.922	46.44	125.82	-32.94	1.0	270.0	1	270.0	99.844															
	428	0.0	0.0	125.82	-32.94	1.0	270.0	0	270.0	67.953															
	431	139.595	44.775	114.525	-24.975	1.0	225.0	1	225.0	54.19															
	432	166.877	44.775	114.525	-24.975	1.0	225.0	1	225.0	108.754															
	433	150.335	44.775	114.525	-24.975	1.0	225.0	1	225.0	75.67															
	434	157.032	44.775	114.525	-24.975	1.0	225.0	1	225.0	89.064															
	437	0.0	0.0	114.83	-25.042	1.0	225.6	0	225.6	110.17															
	438	0.0	0.0	114.83	-25.042	1.0	225.6	0	225.6	58.277															
	439	157.882	44.894	114.83	-25.042	1.0	225.6	1	225.6	90.164															
	440	128.7	44.894	114.83	-25.042	1.0	225.6	1	225.6	31.8															
	441	27.017	7.1525	16.397	-2.092	1.0	42.7	1	42.7	11.334															
	441	30.288	7.1525	16.397	-2.092	1.0	42.7	1	42.7	17.876															
	441	29.1975	7.1525	16.397	-2.092	1.0	42.7	1	42.7	15.695															
	443	0.0	0.0	1.527	-0.333	1.0	3.0	0	3.0	1.43															
	443	0.0	0.0	1.527	-0.333	1.0	3.0	0	3.0	0.466															
	444	2.0705	0.597	1.527	-0.333	1.0	3.0	1	3.0	1.141															
	444	0.0	0.0	1.527	-0.333	1.0	3.0	0	3.0	1.295															
	448	206.461	48.7345	132.036	-34.567	1.0	283.34	1	283.34	129.582															
	449	210.545	48.7345	132.036	-34.567	1.0	283.34	1	283.34	137.75															
	450	198.3295	48.7345	132.036	-34.567	1.0	283.34	1	283.34	113.319															
	451	183.774	48.7345	132.036	-34.567	1.0	283.34	1	283.34	84.208															
	452	174.746	48.7345	132.036	-34.567	1.0	283.34	1	283.34	66.152															
	453	0.0	0.0	9.331	-1.191	1.0	24.3	0	24.3	11.536															
	453	17.6065	4.07	9.331	-1.191	1.0	24.3	1	24.3	10.913															
	453	16.7525	4.07	9.331	-1.191	1.0	24.3	1	24.3	9.205															
	456	131.5465	37.213	95.183	-20.757	1.0	187.0	1	187.0	76.093															
	457	116.005	37.213	95.183	-20.757	1.0	187.0	1	187.0	45.01															
	458	108.6965	37.213	95.183	-20.757	1.0	187.0	1	187.0	30.393															
	459	131.5655	37.213	95.183	-20.757	1.0	187.0	1	187.0	76.131															
	462	192.012	54.579	139.602	-30.444	1.0	274.27	1	274.267	109.757															
	463	176.318	54.579	139.602	-30.444	1.0	274.27	1	274.267	78.369															
	464	0.0	0.0	139.602	-30.444	1.0	274.27	0	274.267	58.535															
	466	17.9105	4.2295	9.696	-1.237	1.0	25.25	1	25.25	10.571															
	466	15.498	4.2295	9.696	-1.237	1.0	25.25	1	25.25	5.746															
	470	372.7975	96.75	262.125	-68.625	1.0	562.5	1	562.5	183.095															
	471	326.623	96.75	262.125	-68.625	1.0	562.5	1	562.5	90.746															
	472	16.1055	4.876	12.471	-2.719	1.0	24.5	1	24.5	7.711															
	472	17.4695	4.876	12.471	-2.719	1.0	24.5	1	24.5	10.439															
	475	0.0	0.0	11.213	-1.431	1.0	29.2	0	29.2	9.221															
	475	16.712	4.891	11.213	-1.431	1.0	29.2	1	29.2	4.224															
	476	21.567	4.891	11.213	-1.431	1.0	29.2	1	29.2	13.934															
	478	34.6005	9.811	25.094	-5.472	1.0	49.3	1	49.3	19.901															
	478	34.2015	9.811	25.094	-5.472	1.0	49.3	1	49.3	19.103															
	481	0.0	0.0	187.593	-49.112	1.0	402.56	0	402.56	154.153															
	482	0.0	0.0	187.593	-49.112	1.0	402.56	0	402.56	86.185															
	483	295.8225	69.2405	187.593	-49.112	1.0	402.56	1	402.56	189.085															
	484	258.232	69.2405	187.593	-49.112	1.0	402.56	1	402.56	113.904															
	485	0.0	0.0	187.593	-49.112	1.0	402.56	0	402.56	56.892															
	486	16.2365	4.8295	11.072	-1.413	1.0	28.83	1	28.833	3.64															
	486	20.6945	4.8295	11.072	-1.413	1.0	28.83	1	28.833	12.556															
	486	0.0	0.0	11.072	-1.413	1.0	28.83	0	28.833	13.66															
...
];

%%	 branch data
%    f_bus    t_bus    r    x    b    rateA    rateB    rateC    ratio    angle    status    angmin    angmax
mpc.branch = [
	2	212	0.01545	0.07925	0.0268	239.94	239.94	239.94	0	0	1	-30.0	30.0								
	3	53	0.00358	0.02585	0.01316	260.03	260.03	260.03	0	0	1	-30.0	30.0								
	3	53	0.00358	0.02585	0.01316	260.03	260.03	260.03	0	0	1	-30.0	30.0								
	3	213	0.0032	0.02195	0.01252	256.59	256.59	256.59	0	0	1	-30.0	30.0								
	4	5	0.00696	0.03605	0.01115	218.77	218.77	218.77	0	0	1	-30.0	30.0								
	4	331	0.00776	0.03805	0.01347	227.23	227.23	227.23	0	0	1	-30.0	30.0								
	5	331	0.00488	0.02675	0.00816	198.63	198.63	198.63	0	0	1	-30.0	30.0								
	5	351	0.01247	0.06542	0.01638	269.59	269.59	269.59	0	0	1	-30.0	30.0								
	6	331	0.00512	0.02366	0.03916	336.94	336.94	336.94	0	0	1	-30.0	30.0								
	8	461	0.00268	0.01325	0.00588	232.73	232.73	232.73	0	0	1	-30.0	30.0								
	10	11	0.01334	0.0919	0.01153	212.51	212.51	212.51	0	0	1	-30.0	30.0								
	10	406	0.00631	0.04403	0.03071	216.36	216.36	216.36	0	0	1	-30.0	30.0								
	11	58	0.02866	0.12879	0.03779	204.21	204.21	204.21	0	0	1	-30.0	30.0								
	12	10	0.00363	0.02006	0.05893	206.37	206.37	206.37	0	0	1	-30.0	30.0								
	12	406	0.00341	0.02064	0.00614	233.32	233.32	233.32	0	0	1	-30.0	30.0								
	13	17	0.01006	0.05754	0.03125	227.86	227.86	227.86	0	0	1	-30.0	30.0								
	14	156	0.00832	0.04446	0.01517	264.27	264.27	264.27	0	0	1	-30.0	30.0								
	15	55	0.0114	0.06259	0.01618	218.52	218.52	218.52	0	0	1	-30.0	30.0								
	16	162	0.01295	0.06652	0.01764	224.35	224.35	224.35	0	0	1	-30.0	30.0								
	16	304	0.0076	0.04102	0.02647	236.54	236.54	236.54	0	0	1	-30.0	30.0								
	18	19	0.0106	0.03976	0.00859	245.27	245.27	245.27	0	0	1	-30.0	30.0								
	18	81	0.00979	0.04489	0.02317	223.47	223.47	223.47	0	0	1	-30.0	30.0								
	18	310	0.00437	0.02601	0.02428	277.5	277.5	277.5	0	0	1	-30.0	30.0								
	18	310	0.00437	0.02601	0.02428	277.5	277.5	277.5	0	0	1	-30.0	30.0								
	19	141	0.00579	0.02902	0.01896	251.0	251.0	251.0	0	0	1	-30.0	30.0								
	19	436	0.00397	0.02717	0.03374	212.6	212.6	212.6	0	0	1	-30.0	30.0								
	20	22	0.00021	0.00112	0.0	99999.0	99999.0	99999.0	0	0	1	-30.0	30.0								
	21	23	0.00251	0.01725	0.03136	248.08	248.08	248.08	0	0	1	-30.0	30.0								
	22	295	0.00153	0.01647	0.36452	1075.02	1075.02	1075.02	0	0	1	-30.0	30.0								
	22	405	0.00203	0.02875	1.00897	1001.46	1001.46	1001.46	0	0	1	-30.0	30.0								
	23	179	0.00873	0.05489	0.03489	236.33	236.33	236.33	0	0	1	-30.0	30.0								
	24	4	0.00354	0.02275	0.02728	241.53	241.53	241.53	0	0	1	-30.0	30.0								
	24	56	0.00957	0.04999	0.01312	244.03	244.03	244.03	0	0	1	-30.0	30.0								
	25	27	0.00026	0.0012	0.0	99999.0	99999.0	99999.0	0	0	1	-30.0	30.0								
	25	314	0.00158	0.02144	0.27546	1151.39	1151.39	1151.39	0	0	1	-30.0	30.0								
	28	29	0.01218	0.06086	0.013	207.91	207.91	207.91	0	0	1	-30.0	30.0								
	28	30	0.00433	0.0201	0.00803	230.9	230.9	230.9	0	0	1	-30.0	30.0								
	29	356	0.008	0.03878	0.03522	188.9	188.9	188.9	0	0	1	-30.0	30.0								
	30	26	0.00666	0.03202	0.02202	304.68	304.68	304.68	0	0	1	-30.0	30.0								
	31	228	0.00895	0.05704	0.02583	280.0	280.0	280.0	0	0	1	-30.0	30.0								
	31	296	0.00518	0.0326	0.05846	358.79	358.79	358.79	0	0	1	-30.0	30.0								
	31	415	0.01134	0.05547	0.04321	231.46	231.46	231.46	0	0	1	-30.0	30.0								
	33	32	0.00681	0.03388	0.01317	214.131	196.59	196.59	0	0	1	-30.0	30.0								
	34	33	0.00341	0.02471	0.02953	270.99	270.99	270.99	0	0	1	-30.0	30.0								
	34	33	0.00341	0.02471	0.02953	270.99	270.99	270.99	0	0	1	-30.0	30.0								
	35	40	0.00294	0.01852	0.0099	228.32	228.32	228.32	0	0	1	-30.0	30.0								
	35	42	0.0045	0.0326	0.01295	276.08	276.08	276.08	0	0	1	-30.0	30.0								
	36	2	0.0029	0.01677	0.01488	188.66	188.66	188.66	0	0	1	-30.0	30.0								
	36	33	0.00284	0.02067	0.01162	213.45	213.45	213.45	0	0	0	-30.0	30.0								
	37	35	0.00781	0.03666	0.0156	218.76	218.76	218.76	0	0	1	-30.0	30.0								
	37	44	0.00831	0.05548	0.03118	200.99	200.99	200.99	0	0	1	-30.0	30.0								
	38	39	0.00316	0.01577	0.01928	252.83	252.83	252.83	0	0	1	-30.0	30.0								
	38	49	0.01069	0.06898	0.02972	204.2	204.2	204.2	0	0	1	-30.0	30.0								
	39	35	0.00385	0.0226	0.01152	259.81	259.81	259.81	0	0	1	-30.0	30.0								
	39	35	0.00385	0.0226	0.01152	259.81	259.81	259.81	0	0	1	-30.0	30.0								
	39	361	0.0041	0.0324	0.02237	296.76	296.76	296.76	0	0	1	-30.0	30.0								
	39	361	0.0041	0.0324	0.02237	296.76	296.76	296.76	0	0	1	-30.0	30.0								
	39	361	0.0041	0.0324	0.02237	296.76	296.76	296.76	0	0	0	-30.0	30.0								
	41	43	0.00023	0.00105	0.0	99999.0	99999.0	99999.0	0	0	1	-30.0	30.0								
	42	40	0.00436	0.02488	0.01261	308.21	308.21	308.21	0	0	1	-30.0	30.0								
	43	54	0.00112	0.01332	0.29221	1210.87	1210.87	1210.87	0	0	1	-30.0	30.0								
	43	498	0.00161	0.01986	0.28604	1210.03	1210.03	1210.03	0	0	1	-30.0	30.0								
	44	42	0.00483	0.02223	0.00975	240.21	240.21	240.21	0	0	1	-30.0	30.0								
	45	36	0.0047	0.03233	0.00955	196.67	196.67	196.67	0	0	1	-30.0	30.0								
	45	37	0.00411	0.02265	0.00675	223.09	223.09	223.09	0	0	1	-30.0	30.0								
	46	45	0.00234	0.0128	0.01235	401.85	401.85	401.85	0	0	1	-30.0	30.0								
	46	50	0.00352	0.01513	0.02257	213.18	213.18	213.18	0	0	1	-30.0	30.0								
	46	51	0.0039	0.02018	0.02637	290.75	290.75	290.75	0	0	1	-30.0	30.0								
	46	51	0.0039	0.02018	0.02637	290.75	290.75	290.75	0	0	1	-30.0	30.0								
	46	214	0.00566	0.02856	0.04583	324.34	324.34	324.34	0	0	1	-30.0	30.0								
	47	40	0.00542	0.02984	0.00973	209.65	209.65	209.65	0	0	1	-30.0	30.0								
	48	50	0.00493	0.01971	0.02664	231.0	231.0	231.0	0	0	1	-30.0	30.0								
	48	480	0.01413	0.06338	0.0138	270.01	270.01	270.01	0	0	1	-30.0	30.0								
	49	47	0.00275	0.01688	0.01186	210.29	210.29	210.29	0	0	1	-30.0	30.0								
	50	49	0.0042	0.01896	0.00848	263.28	263.28	263.28	0	0	1	-30.0	30.0								
	50	51	0.00307	0.0198	0.01296	299.51	299.51	299.51	0	0	1	-30.0	30.0								
	51	48	0.00285	0.02077	0.01119	206.03	206.03	206.03	0	0	1	-30.0	30.0								
	51	70	0.00927	0.04209	0.02024	302.02	302.02	302.02	0	0	1	-30.0	30.0								
	51	357	0.00606	0.0375	0.04621	281.97	281.97	281.97	0	0	1	-30.0	30.0								
	51	357	0.00606	0.0375	0.04621	281.97	281.97	281.97	0	0	1	-30.0	30.0								
	51	357	0.00606	0.0375	0.04621	281.97	281.97	281.97	0	0	1	-30.0	30.0								
	52	54	0.00021	0.00101	0.0	99999.0	99999.0	99999.0	0	0	1	-30.0	30.0								
	53	32	0.0054	0.03034	0.00829	226.77	226.77	226.77	0	0	1	-30.0	30.0								
	53	36	0.00512	0.03189	0.01707	230.21	230.21	230.21	0	0	1	-30.0	30.0								
	53	45	0.00449	0.02512	0.01796	273.78	273.78	273.78	0	0	1	-30.0	30.0								
	53	45	0.00449	0.02512	0.01796	273.78	273.78	273.78	0	0	1	-30.0	30.0								
	55	72	0.00255	0.01458	0.053	202.42	202.42	202.42	0	0	1	-30.0	30.0								
	57	66	0.01254	0.07317	0.01748	188.33	188.33	188.33	0	0	1	-30.0	30.0								
	57	161	0.03188	0.17652	0.09079	198.2	198.2	198.2	0	0	1	-30.0	30.0								
	57	255	0.00718	0.03906	0.05374	300.0	300.0	300.0	0	0	1	-30.0	30.0								
	58	59	0.00839	0.044	0.02159	282.33	282.33	282.33	0	0	1	-30.0	30.0								
	59	179	0.01997	0.12545	0.03437	209.05	209.05	209.05	0	0	1	-30.0	30.0								
	60	211	0.01078	0.06965	0.02318	234.89	234.89	234.89	0	0	1	-30.0	30.0								
	61	469	0.00534	0.03551	0.01337	209.34	209.34	209.34	0	0	1	-30.0	30.0								
	62	169	0.02292	0.14176	0.03313	284.38	284.38	284.38	0	0	1	-30.0	30.0								
	62	245	0.01711	0.10492	0.05261	205.64	205.64	205.64	0	0	1	-30.0	30.0								
	62	271	0.02251	0.1292	0.04164	215.63	215.63	215.63	0	0	1	-30.0	30.0								
	63	396	0.00685	0.03544	0.0556	276.04	276.04	276.04	0	0	1	-30.0	30.0								
	63	396	0.00685	0.03544	0.0556	318.9	318.9	318.9	0	0	1	-30.0	30.0								
	64	308	0.00454	0.02497	0.02225	204.94	204.94	204.94	0	0	1	-30.0	30.0								
	65	118	0.00682	0.04898	0.02919	187.98	187.98	187.98	0	0	1	-30.0	30.0								
	65	122	0.01146	0.07894	0.02217	223.13	223.13	223.13	0	0	1	-30.0	30.0								
	66	180	0.01363	0.07504	0.01741	212.27	212.27	212.27	0	0	1	-30.0	30.0								
	67	415	0.01052	0.05746	0.03739	237.15	237.15	237.15	0	0	1	-30.0	30.0								
	68	159	0.00606	0.03751	0.02553	229.73	229.73	229.73	0	0	1	-30.0	30.0								
	68	377	0.00418	0.02779	0.01608	244.32	244.32	244.32	0	0	1	-30.0	30.0								
	69	1	0.02635	0.13544	0.05042	230.13	230.13	230.13	0	0	1	-30.0	30.0								
	69	263	0.03034	0.07978	0.0291	203.37	203.37	203.37	0	0	1	-30.0	30.0								
	70	357	0.00846	0.05164	0.01024	188.28	188.28	188.28	0	0	1	-30.0	30.0								
	70	480	0.00434	0.02024	0.00803	410.92	410.92	410.92	0	0	1	-30.0	30.0								
	71	6	0.00782	0.04971	0.01466	266.45	266.45	266.45	0	0	1	-30.0	30.0								
	71	236	0.008	0.0463	0.04138	201.33	201.33	201.33	0	0	1	-30.0	30.0								
	72	138	0.00445	0.03511	0.01278	207.55	207.55	207.55	0	0	1	-30.0	30.0								
	73	72	0.00533	0.03432	0.0256	220.8	220.8	220.8	0	0	1	-30.0	30.0								
	73	147	0.00441	0.02288	0.16452	299.52	299.52	299.52	0	0	1	-30.0	30.0								
	74	96	0.00818	0.03503	0.05196	247.19	247.19	247.19	0	0	1	-30.0	30.0								
	74	267	0.00959	0.06106	0.02358	231.57	231.57	231.57	0	0	1	-30.0	30.0								
	75	8	0.00464	0.03332	0.02096	200.72	200.72	200.72	0	0	1	-30.0	30.0								
	75	358	0.01022	0.0653	0.02297	188.8	188.8	188.8	0	0	1	-30.0	30.0								
	76	87	0.00735	0.04797	0.03117	229.57	229.57	229.57	0	0	1	-30.0	30.0								
	76	98	0.00992	0.0434	0.01407	204.48	204.48	204.48	0	0	1	-30.0	30.0								
	77	79	0.00411	0.02156	0.02776	211.27	211.27	211.27	0	0	1	-30.0	30.0								
	77	107	0.01175	0.04741	0.01621	218.26	218.26	218.26	0	0	1	-30.0	30.0								
	78	107	0.0111	0.06471	0.01077	206.24	206.24	206.24	0	0	1	-30.0	30.0								
	78	175	0.0	0.03	0.0	99999.0	99999.0	99999.0	0	0	1	-30.0	30.0								
	79	78	0.00255	0.01596	0.009	203.0	203.0	203.0	0	0	1	-30.0	30.0								
	79	107	0.00332	0.01324	0.01461	250.46	250.46	250.46	0	0	1	-30.0	30.0								
	80	348	0.00704	0.04291	0.0165	208.58	208.58	208.58	0	0	1	-30.0	30.0								
	81	83	0.00532	0.02887	0.01293	207.61	207.61	207.61	0	0	1	-30.0	30.0								
	81	166	0.00541	0.03363	0.07959	293.17	293.17	293.17	0	0	1	-30.0	30.0								
	81	229	0.00313	0.02117	0.12413	215.36	215.36	215.36	0	0	1	-30.0	30.0								
	82	266	0.01143	0.05923	0.02232	204.89	204.89	204.89	0	0	1	-30.0	30.0								
	82	310	0.01311	0.09196	0.03335	257.15	257.15	257.15	0	0	1	-30.0	30.0								
	83	430	0.00542	0.03456	0.00848	222.55	222.55	222.55	0	0	1	-30.0	30.0								
	84	139	0.00436	0.01904	0.01374	210.32	210.32	210.32	0	0	1	-30.0	30.0								
	84	195	0.00929	0.05888	0.02196	259.57	259.57	259.57	0	0	1	-30.0	30.0								
	84	195	0.00929	0.05888	0.02196	259.57	259.57	259.57	0	0	1	-30.0	30.0								
	84	266	0.00501	0.04138	0.02918	246.13	246.13	246.13	0	0	1	-30.0	30.0								
	84	436	0.00701	0.04147	0.0151	258.28	258.28	258.28	0	0	1	-30.0	30.0								
	85	161	0.00895	0.04842	0.01541	177.52	177.52	177.52	0	0	1	-30.0	30.0								
	86	91	0.00643	0.03459	0.02315	223.14	223.14	223.14	0	0	1	-30.0	30.0								
	87	86	0.00619	0.04271	0.00952	237.28	237.28	237.28	0	0	1	-30.0	30.0								
	87	89	0.00793	0.0436	0.01846	258.25	258.25	258.25	0	0	1	-30.0	30.0								
	87	274	0.0196	0.06862	0.03494	292.99	292.99	292.99	0	0	1	-30.0	30.0								
	87	274	0.0196	0.06862	0.03494	292.99	292.99	292.99	0	0	1	-30.0	30.0								
	88	86	0.0062	0.0363	0.01417	239.42	239.42	239.42	0	0	1	-30.0	30.0								
	89	91	0.00819	0.04647	0.00929	259.02	259.02	259.02	0	0	1	-30.0	30.0								
	90	92	0.00027	0.00111	0.0	99999.0	99999.0	99999.0	0	0	1	-30.0	30.0								
	90	273	0.00116	0.01353	0.19487	1462.73	1462.73	1462.73	0	0	1	-30.0	30.0								
	91	143	0.00923	0.05582	0.02782	236.4	236.4	236.4	0	0	1	-30.0	30.0								
	94	239	0.00831	0.02932	0.00963	256.91	256.91	256.91	0	0	1	-30.0	30.0								
	95	100	0.00487	0.02634	0.02054	208.4	208.4	208.4	0	0	1	-30.0	30.0								
	95	205	0.01219	0.06146	0.02738	174.34	174.34	174.34	0	0	1	-30.0	30.0								
	97	90	0.0012	0.01382	0.25974	1139.35	1139.35	1139.35	0	0	1	-30.0	30.0								
	97	99	0.00028	0.00105	0.0	99999.0	99999.0	99999.0	0	0	1	-30.0	30.0								
	97	273	0.00243	0.03024	0.51978	1267.29	1267.29	1267.29	0	0	1	-30.0	30.0								
	97	405	0.00208	0.02437	0.52404	1074.6	1074.6	1074.6	0	0	1	-30.0	30.0								
	98	101	0.00804	0.04452	0.01721	306.67	306.67	306.67	0	0	1	-30.0	30.0								
	100	101	0.00297	0.01464	0.02088	253.07	253.07	253.07	0	0	1	-30.0	30.0								
	101	126	0.01356	0.06689	0.01723	191.2	191.2	191.2	0	0	1	-30.0	30.0								
	102	69	0.00789	0.04916	0.052	227.8	227.8	227.8	0	0	1	-30.0	30.0								
	102	103	0.00617	0.04056	0.02478	209.35	209.35	209.35	0	0	1	-30.0	30.0								
	103	219	0.01658	0.08103	0.02353	219.57	219.57	219.57	0	0	1	-30.0	30.0								
	103	376	0.00543	0.03262	0.01846	224.43	224.43	224.43	0	0	1	-30.0	30.0								
	104	9	0.01201	0.06216	0.02296	191.72	191.72	191.72	0	0	1	-30.0	30.0								
	104	163	0.0182	0.10493	0.04177	244.46	244.46	244.46	0	0	1	-30.0	30.0								
	104	226	0.01294	0.08612	0.05222	196.78	196.78	196.78	0	0	1	-30.0	30.0								
	105	58	0.00997	0.05946	0.02304	201.82	201.82	201.82	0	0	1	-30.0	30.0								
	105	399	0.02842	0.11647	0.0311	224.0	224.0	224.0	0	0	1	-30.0	30.0								
	106	108	0.0003	0.00116	0.0	99999.0	99999.0	99999.0	0	0	1	-30.0	30.0								
	107	206	0.00809	0.05973	0.04735	238.35	238.35	238.35	0	0	1	-30.0	30.0								
	108	414	0.00172	0.02068	0.50456	1228.85	1228.85	1228.85	0	0	1	-30.0	30.0								
	109	200	0.02039	0.11891	0.02762	220.15	220.15	220.15	0	0	1	-30.0	30.0								
	110	196	0.00428	0.02356	0.01911	216.49	216.49	216.49	0	0	1	-30.0	30.0								
	110	398	0.00483	0.02581	0.01595	252.34	252.34	252.34	0	0	1	-30.0	30.0								
	111	196	0.00542	0.03447	0.01024	214.05	214.05	214.05	0	0	1	-30.0	30.0								
	112	423	0.00423	0.02859	0.07637	249.73	249.73	249.73	0	0	1	-30.0	30.0								
	113	260	0.00834	0.0513	0.03475	202.53	202.53	202.53	0	0	1	-30.0	30.0								
	113	398	0.00664	0.03051	0.01287	227.33	227.33	227.33	0	0	1	-30.0	30.0								
	114	111	0.00911	0.04001	0.01596	208.23	208.23	208.23	0	0	1	-30.0	30.0								
	114	398	0.01207	0.06194	0.0236	226.07	226.07	226.07	0	0	1	-30.0	30.0								
	115	77	0.00412	0.02554	0.0179	230.62	230.62	230.62	0	0	1	-30.0	30.0								
	115	131	0.00819	0.05537	0.02636	218.92	218.92	218.92	0	0	1	-30.0	30.0								
	115	228	0.01263	0.05925	0.01194	217.39	217.39	217.39	0	0	1	-30.0	30.0								
	116	206	0.00973	0.05046	0.01936	222.37	222.37	222.37	0	0	1	-30.0	30.0								
	117	217	0.00511	0.02531	0.10592	223.26	223.26	223.26	0	0	1	-30.0	30.0								
	119	121	0.00024	0.00115	0.0	99999.0	99999.0	99999.0	0	0	1	-30.0	30.0								
	120	477	0.00424	0.02331	0.15739	190.09	190.09	190.09	0	0	1	-30.0	30.0								
	121	151	0.00156	0.02	0.65571	1248.37	1248.37	1248.37	0	0	1	-30.0	30.0								
	122	477	0.00591	0.02868	0.01129	248.26	248.26	248.26	0	0	1	-30.0	30.0								
	124	24	0.00552	0.03121	0.01172	322.21	322.21	322.21	0	0	1	-30.0	30.0								
	124	122	0.00617	0.04039	0.01832	295.24	295.24	295.24	0	0	1	-30.0	30.0								
	125	333	0.00817	0.0423	0.02617	268.04	268.04	268.04	0	0	1	-30.0	30.0								
	125	453	0.00365	0.02567	0.01217	199.42	199.42	199.42	0	0	1	-30.0	30.0								
	127	9	0.00947	0.07409	0.02786	162.26	162.26	162.26	0	0	1	-30.0	30.0								
	128	142	0.01769	0.09912	0.02484	180.09	180.09	180.09	0	0	1	-30.0	30.0								
	128	164	0.00911	0.065	0.02054	212.74	212.74	212.74	0	0	1	-30.0	30.0								
	129	128	0.00489	0.02924	0.02448	225.74	225.74	225.74	0	0	1	-30.0	30.0								
	129	399	0.01897	0.09738	0.05592	249.6	249.6	249.6	0	0	1	-30.0	30.0								
	130	179	0.0	0.025	0.0	99999.0	99999.0	99999.0	0	0	1	-30.0	30.0								
...
];

%%-----	  OPF Data  -----%%
%% cost data
%    1    startup    shutdown    n    x1    y1    ...    xn    yn
%    2    startup    shutdown    n    c(n-1)    ...    c0
mpc.gencost = [
	2	0.0	0.0	3	0.0	30.0	0.0
	2	0.0	0.0	3	0.00169	8.281	0.0
	2	0.0	0.0	3	0.0011	9.109	0.0
	2	0.0	0.0	3	0.0	30.0	0.0
	2	0.0	0.0	3	0.0	30.0	0.0
	2	0.0	0.0	3	0.0	30.0	0.0
	2	0.0	0.0	3	0.0	30.0	0.0
	2	0.0	0.0	3	0.01007	18.5	-1.038
	2	0.0	0.0	3	0.01305	18.52	-1.241
	2	0.0	0.0	3	0.0197	17.87	-1.92
	2	0.0	0.0	3	0.01694	17.82	-1.692
	2	0.0	0.0	3	0.01915	19.41	-2.137
	2	0.0	0.0	3	0.01717	18.52	-1.849
	2	0.0	0.0	3	0.02396	20.12	-2.329
	2	0.0	0.0	3	0.02115	16.5	-1.566
	2	0.0	0.0	3	0.0	30.0	0.0
	2	0.0	0.0	3	0.0	30.0	0.0
	2	0.0	0.0	3	0.0	16.97	-1.147
	2	0.0	0.0	3	0.01219	20.99	-1.359
	2	0.0	0.0	3	0.01066	17.09	-1.219
	2	0.0	0.0	3	0.01344	15.74	-1.309
	2	0.0	0.0	3	0.01579	19.37	-1.534
	2	0.0	0.0	3	0.016	17.23	-1.43
	2	0.0	0.0	3	0.01866	19.15	-1.817
	2	0.0	0.0	3	0.0	30.0	0.0
	2	0.0	0.0	3	0.0	30.0	0.0
	2	0.0	0.0	3	0.0	30.0	0.0
	2	0.0	0.0	3	0.0	30.0	0.0
	2	0.0	0.0	3	0.0	30.0	0.0
	2	0.0	0.0	3	0.0	30.0	0.0
	2	0.0	0.0	3	0.0	30.0	0.0
	2	0.0	0.0	3	0.0017	8.351	0.0
	2	0.0	0.0	3	0.00122	9.206	0.0
	2	0.0	0.0	3	0.00122	9.188	0.0
	2	0.0	0.0	3	0.01456	22.58	-2.889
	2	0.0	0.0	3	0.01987	18.43	-2.18
	2	0.0	0.0	3	0.02551	19.59	-2.757
	2	0.0	0.0	3	0.02119	19.74	-3.255
	2	0.0	0.0	3	0.01334	19.17	-2.543
	2	0.0	0.0	3	0.01662	18.32	-2.537
	2	0.0	0.0	3	0.01755	17.29	0.0
	2	0.0	0.0	3	0.0	18.68	0.0
	2	0.0	0.0	3	0.0	18.59	0.0
	2	0.0	0.0	3	0.0	20.01	0.0
	2	0.0	0.0	3	0.0	17.63	0.0
	2	0.0	0.0	3	0.01531	18.12	0.0
	2	0.0	0.0	3	0.0	30.0	0.0
	2	0.0	0.0	3	0.0	30.0	0.0
	2	0.0	0.0	3	0.0	30.0	0.0
	2	0.0	0.0	3	0.0	30.0	0.0
	2	0.0	0.0	3	0.0	34.42	-36.1
	2	0.0	0.0	3	0.0	31.18	-42.12
	2	0.0	0.0	3	0.01256	20.31	-1.884
	2	0.0	0.0	3	0.01432	20.6	-1.96
	2	0.0	0.0	3	0.01262	16.14	-1.616
	2	0.0	0.0	3	0.01423	18.96	-1.933
	2	0.0	0.0	3	0.0395	32.4	-3.114
	2	0.0	0.0	3	0.04236	30.5	-3.223
	2	0.0	0.0	3	0.02547	31.94	-2.792
	2	0.0	0.0	3	0.0	15.88	-7.369
	2	0.0	0.0	3	0.0	16.24	0.0
	2	0.0	0.0	3	0.0	30.0	0.0
	2	0.0	0.0	3	0.0	30.0	0.0
	2	0.0	0.0	3	0.0	30.0	0.0
	2	0.0	0.0	3	0.0	30.0	0.0
	2	0.0	0.0	3	0.0	30.0	0.0
	2	0.0	0.0	3	0.0	30.0	0.0
	2	0.0	0.0	3	0.0	30.0	0.0
	2	0.0	0.0	3	0.0	18.25	-59.22
	2	0.0	0.0	3	0.0	30.0	0.0
	2	0.0	0.0	3	0.0	30.0	0.0
	2	0.0	0.0	3	0.0	30.0	0.0
	2	0.0	0.0	3	0.0	30.0	0.0
	2	0.0	0.0	3	0.0	30.0	0.0
	2	0.0	0.0	3	0.0	30.0	0.0
	2	0.0	0.0	3	0.0	30.0	0.0
	2	0.0	0.0	3	0.0	30.0	0.0
	2	0.0	0.0	3	0.0	16.89	0.0
	2	0.0	0.0	3	0.0	17.24	0.0
	2	0.0	0.0	3	0.07238	32.4	-16.6
	2	0.0	0.0	3	0.09706	41.56	-22.21
	2	0.0	0.0	3	0.06372	60.65	-24.9
	2	0.0	0.0	3	0.04619	57.64	-18.86
	2	0.0	0.0	3	0.0	30.0	0.0
	2	0.0	0.0	3	0.0	30.0	0.0
	2	0.0	0.0	3	0.0	30.0	0.0
	2	0.0	0.0	3	0.0	30.0	0.0
	2	0.0	0.0	3	0.05511	35.08	-7.252
	2	0.0	0.0	3	0.03611	40.51	-6.465
	2	0.0	0.0	3	0.0	16.81	-2.082
	2	0.0	0.0	3	0.01743	19.43	-1.954
	2	0.0	0.0	3	0.02033	20.52	-2.296
	2	0.0	0.0	3	0.02259	17.81	-1.818
	2	0.0	0.0	3	0.014	21.09	-2.093
	2	0.0	0.0	3	0.0	30.0	0.0
	2	0.0	0.0	3	0.0	30.0	0.0
	2	0.0	0.0	3	0.0	30.0	0.0
	2	0.0	0.0	3	0.0	30.0	0.0
	2	0.0	0.0	3	0.0	30.0	0.0
	2	0.0	0.0	3	0.0	30.0	0.0
	2	0.0	0.0	3	0.0	30.0	0.0
	2	0.0	0.0	3	0.0	30.0	0.0
	2	0.0	0.0	3	0.0	30.0	0.0
	2	0.0	0.0	3	0.0	30.0	0.0
	2	0.0	0.0	3	0.0	30.0	0.0
	2	0.0	0.0	3	0.0	30.0	0.0
	2	0.0	0.0	3	0.0	30.0	0.0
	2	0.0	0.0	3	0.0	30.0	0.0
	2	0.0	0.0	3	0.01632	15.85	-1.077
	2	0.0	0.0	3	0.01435	17.2	-1.051
	2	0.0	0.0	3	0.01315	16.85	-1.112
	2	0.0	0.0	3	0.01543	18.81	-1.131
	2	0.0	0.0	3	0.0	30.0	0.0
	2	0.0	0.0	3	0.0	30.0	0.0
	2	0.0	0.0	3	0.0	30.0	0.0
	2	0.0	0.0	3	0.0	30.0	0.0
	2	0.0	0.0	3	0.0	30.0	0.0
	2	0.0	0.0	3	0.0	30.0	0.0
	2	0.0	0.0	3	0.0	18.6	-22.78
	2	0.0	0.0	3	0.0	16.85	-20.94
	2	0.0	0.0	3	0.0	17.23	-18.24
	2	0.0	0.0	3	0.0	18.16	-21.24
	2	0.0	0.0	3	0.0	17.98	0.0
	2	0.0	0.0	3	0.0	18.59	-25.38
	2	0.0	0.0	3	0.0	30.0	0.0
	2	0.0	0.0	3	0.0	30.0	0.0
	2	0.0	0.0	3	0.0	17.74	-13.65
	2	0.0	0.0	3	0.0	14.55	0.0
	2	0.0	0.0	3	0.0	30.0	0.0
	2	0.0	0.0	3	0.0	30.0	0.0
	2	0.0	0.0	3	0.0	30.0	0.0
	2	0.0	0.0	3	0.0	30.0	0.0
	2	0.0	0.0	3	0.0	17.44	-39.95
	2	0.0	0.0	3	0.0	17.68	-39.85
	2	0.0	0.0	3	0.0	16.67	-51.69
	2	0.0	0.0	3	0.0	17.29	-40.04
	2	0.0	0.0	3	0.0	15.92	-38.62
	2	0.0	0.0	3	0.01782	18.55	0.0
	2	0.0	0.0	3	0.0	30.0	0.0
	2	0.0	0.0	3	0.07006	36.3	-9.988
	2	0.0	0.0	3	0.04361	36.45	-8.58
	2	0.0	0.0	3	0.04884	45.53	-10.24
	2	0.0	0.0	3	0.07723	35.22	-10.19
	2	0.0	0.0	3	0.05828	32.24	-8.31
	2	0.0	0.0	3	0.0	17.32	0.0
	2	0.0	0.0	3	0.0	14.96	0.0
	2	0.0	0.0	3	0.0321	35.55	-5.101
	2	0.0	0.0	3	0.04544	32.6	-6.358
	2	0.0	0.0	3	0.04928	38.76	-7.503
	2	0.0	0.0	3	0.04114	33.74	-6.166
	2	0.0	0.0	3	0.05504	35.86	-6.78
	2	0.0	0.0	3	0.02348	19.96	-2.36
	2	0.0	0.0	3	0.01009	18.25	-1.451
	2	0.0	0.0	3	0.01625	16.86	-1.93
	2	0.0	0.0	3	0.01542	20.59	-1.999
	2	0.0	0.0	3	0.01198	20.42	-1.74
	2	0.0	0.0	3	0.02412	21.75	-2.514
	2	0.0	0.0	3	0.01786	20.6	-2.333
	2	0.0	0.0	3	0.02627	19.18	-2.102
	2	0.0	0.0	3	0.0	30.0	0.0
	2	0.0	0.0	3	0.0	30.0	0.0
	2	0.0	0.0	3	0.0	30.0	0.0
	2	0.0	0.0	3	0.0	15.73	0.0
	2	0.0	0.0	3	0.0	17.87	0.0
	2	0.0	0.0	3	0.0	16.44	0.0
	2	0.0	0.0	3	0.0	14.92	0.0
	2	0.0	0.0	3	0.03595	38.03	-6.309
	2	0.0	0.0	3	0.0334	42.34	-6.071
	2	0.0	0.0	3	0.03545	36.39	-5.768
	2	0.0	0.0	3	0.05358	36.26	-7.519
	2	0.0	0.0	3	0.05034	31.34	-6.279
	2	0.0	0.0	3	0.0	30.0	0.0
	2	0.0	0.0	3	0.0	30.0	0.0
	2	0.0	0.0	3	0.0	30.0	0.0
	2	0.0	0.0	3	0.01329	15.42	-1.455
	2	0.0	0.0	3	0.02109	18.78	-1.762
	2	0.0	0.0	3	0.01965	16.67	-1.379
	2	0.0	0.0	3	0.01365	18.54	-1.494
	2	0.0	0.0	3	0.01531	21.78	-2.414
	2	0.0	0.0	3	0.01908	17.54	-2.541
	2	0.0	0.0	3	0.02191	19.74	-2.536
	2	0.0	0.0	3	0.0	30.0	0.0
	2	0.0	0.0	3	0.0	30.0	0.0
	2	0.0	0.0	3	0.05819	47.18	-16.98
	2	0.0	0.0	3	0.0804	36.88	-16.91
	2	0.0	0.0	3	0.0	14.25	-1.439
	2	0.0	0.0	3	0.0	14.75	0.0
	2	0.0	0.0	3	0.0	30.0	0.0
	2	0.0	0.0	3	0.0	30.0	0.0
	2	0.0	0.0	3	0.0	30.0	0.0
	2	0.0	0.0	3	0.0	17.32	0.0
	2	0.0	0.0	3	0.0	14.83	0.0
	2	0.0	0.0	3	0.05605	44.51	-12.76
	2	0.0	0.0	3	0.05767	31.87	-9.818
	2	0.0	0.0	3	0.0579	64.55	-14.66
	2	0.0	0.0	3	0.07515	45.63	-14.62
	2	0.0	0.0	3	0.07938	34.57	-11.34
	2	0.0	0.0	3	0.0	30.0	0.0
	2	0.0	0.0	3	0.0	30.0	0.0
	2	0.0	0.0	3	0.0	30.0	0.0
...
];

	 